$ Nastran BDF – Sample v1
$ Simple flat plate model
BEGIN BULK
$
$ Grid points
GRID    1               0.0     0.0     0.0
GRID    2               1.0     0.0     0.0
GRID    3               1.0     1.0     0.0
GRID    4               0.0     1.0     0.0
GRID    5               2.0     0.0     0.0
GRID    6               2.0     1.0     0.0
$
$ Shell property
PSHELL  10      1       0.01
$
$ Material
MAT1    1       210000.0        0.3     7.85e-6
$
$ Elements
CQUAD4  100     10      1       2       3       4
CQUAD4  101     10      2       5       6       3
$
$ Boundary conditions – SPC
SPC1    1       123456  1
SPC1    1       123456  4
$
$ Load
FORCE   1       2       0       1000.0  1.0     0.0     0.0
FORCE   1       3       0       1000.0  1.0     0.0     0.0
$
ENDDATA
